Version 4.1
SHEET 1 880 864
WIRE -224 -128 -224 -144
WIRE -480 -48 -576 -48
WIRE -352 -48 -400 -48
WIRE -288 -48 -352 -48
WIRE -224 -48 -224 -64
WIRE -224 -48 -288 -48
WIRE -80 -48 -224 -48
WIRE -512 -32 -576 -32
WIRE 16 -32 -16 -32
WIRE 48 -32 16 -32
WIRE 160 -32 128 -32
WIRE 192 -32 160 -32
WIRE 304 -32 272 -32
WIRE -544 -16 -576 -16
WIRE -80 -16 -128 -16
WIRE -352 0 -352 -48
WIRE -288 0 -288 -48
WIRE 16 0 16 -32
WIRE -128 96 -128 -16
WIRE 16 96 16 80
WIRE 16 96 -128 96
WIRE 160 96 160 -32
WIRE 208 96 160 96
WIRE 16 112 16 96
WIRE 304 112 304 -32
WIRE 304 112 272 112
WIRE 560 112 304 112
WIRE 208 128 160 128
WIRE -224 176 -224 -48
WIRE 16 208 16 192
WIRE 16 208 -176 208
WIRE 16 224 16 208
WIRE 16 320 16 304
WIRE 16 320 -128 320
WIRE 16 336 16 320
WIRE -352 352 -352 64
WIRE -288 352 -288 64
WIRE -128 432 -128 320
WIRE -80 432 -128 432
WIRE 16 448 16 416
WIRE 16 448 -16 448
WIRE 48 448 16 448
WIRE 160 448 160 128
WIRE 160 448 128 448
WIRE 192 448 160 448
WIRE 304 448 272 448
WIRE -512 464 -512 -32
WIRE -480 464 -512 464
WIRE -352 464 -352 416
WIRE -352 464 -400 464
WIRE -288 464 -288 416
WIRE -288 464 -352 464
WIRE -224 464 -224 240
WIRE -224 464 -288 464
WIRE -80 464 -224 464
WIRE -224 480 -224 464
WIRE -224 560 -224 544
WIRE 16 576 -128 576
WIRE -128 624 -128 576
WIRE -80 624 -128 624
WIRE 16 640 16 576
WIRE 16 640 -16 640
WIRE 48 640 16 640
WIRE 160 640 128 640
WIRE 192 640 160 640
WIRE 288 640 256 640
WIRE -176 656 -176 208
WIRE -80 656 -176 656
WIRE 160 704 160 640
WIRE 176 704 160 704
WIRE 288 704 288 640
WIRE 288 704 256 704
WIRE 288 784 288 704
WIRE 288 784 240 784
WIRE -544 800 -544 -16
WIRE 48 800 -544 800
WIRE 160 800 160 704
WIRE 160 800 128 800
WIRE 176 800 160 800
FLAG 304 448 0
FLAG -224 560 0
FLAG -224 -144 0
SYMBOL OpAmps\\OP07 -48 32 M180
SYMATTR InstName U1
SYMBOL OpAmps\\OP07 -48 384 R0
SYMATTR InstName U2
SYMBOL res 0 320 R0
SYMATTR InstName R1
SYMBOL res 0 208 R0
SYMATTR InstName R2
SYMBOL res 0 96 R0
SYMATTR InstName R3
SYMBOL res 0 -16 R0
SYMATTR InstName R4
SYMBOL OpAmps\\OP07 -48 576 R0
SYMATTR InstName U4
SYMBOL OpAmps\\OP07 208 736 M0
SYMATTR InstName U5
SYMBOL res 144 624 R90
WINDOW 0 0 56 VBottom 2
WINDOW 3 32 56 VTop 2
SYMATTR InstName R5
SYMBOL cap 256 624 R90
WINDOW 0 0 32 VBottom 2
WINDOW 3 -29 69 VTop 2
SYMATTR InstName C1
SYMBOL res 272 688 R90
WINDOW 0 0 56 VBottom 2
WINDOW 3 -28 14 VTop 2
SYMATTR InstName R6
SYMBOL res 144 784 R90
WINDOW 0 0 56 VBottom 2
WINDOW 3 32 56 VTop 2
SYMATTR InstName R7
SYMBOL res 144 -48 R90
WINDOW 0 0 56 VBottom 2
WINDOW 3 32 56 VTop 2
SYMATTR InstName R8
SYMBOL res 144 432 R90
WINDOW 0 0 56 VBottom 2
WINDOW 3 32 56 VTop 2
SYMATTR InstName R9
SYMBOL res 288 432 R90
WINDOW 0 0 56 VBottom 2
WINDOW 3 32 56 VTop 2
SYMATTR InstName R10
SYMBOL res 288 -48 R90
WINDOW 0 0 56 VBottom 2
WINDOW 3 32 56 VTop 2
SYMATTR InstName R11
SYMBOL OpAmps\\OP07 240 48 R0
SYMATTR InstName U6
SYMBOL diode -304 0 R0
SYMATTR InstName D1
SYMBOL diode -272 416 R180
WINDOW 0 -24 63 Left 2
WINDOW 3 -16 2 Left 2
SYMATTR InstName D2
SYMBOL diode -368 352 R0
WINDOW 0 -22 4 Left 2
WINDOW 3 -9 62 Left 2
SYMATTR InstName D3
SYMBOL diode -336 64 R180
WINDOW 0 24 64 Left 2
WINDOW 3 24 0 Left 2
SYMATTR InstName D4
SYMBOL res -384 448 R90
WINDOW 0 0 56 VBottom 2
WINDOW 3 32 56 VTop 2
SYMATTR InstName R12
SYMBOL res -384 -64 R90
WINDOW 0 0 56 VBottom 2
WINDOW 3 32 56 VTop 2
SYMATTR InstName R13
SYMBOL cap -240 176 R0
SYMATTR InstName C2
SYMBOL cap -240 480 R0
SYMATTR InstName C3
SYMBOL cap -240 -128 R0
SYMATTR InstName C4
