Version 4.1
SHEET 1 880 848
SYMBOL OpAmps\\OP07 64 -112 R0
SYMATTR InstName U1
SYMBOL OpAmps\\OP07 48 400 R0
SYMATTR InstName U2
SYMBOL OpAmps\\OP07 528 32 R0
SYMATTR InstName U3
SYMBOL res 0 320 R0
SYMATTR InstName R1
SYMBOL res 0 208 R0
SYMATTR InstName R2
SYMBOL res 0 96 R0
SYMATTR InstName R3
SYMBOL res 0 -16 R0
SYMATTR InstName R4
SYMBOL OpAmps\\OP07 112 576 R0
SYMATTR InstName U4
SYMBOL OpAmps\\OP07 224 736 R0
SYMATTR InstName U5
