Version 4.1
SHEET 1 880 864
WIRE -224 -128 -224 -144
WIRE -704 -48 -752 -48
WIRE -464 -48 -624 -48
WIRE -352 -48 -384 -48
WIRE -288 -48 -352 -48
WIRE -224 -48 -224 -64
WIRE -224 -48 -288 -48
WIRE -80 -48 -224 -48
WIRE 16 -32 -16 -32
WIRE 48 -32 16 -32
WIRE 160 -32 128 -32
WIRE 192 -32 160 -32
WIRE 304 -32 272 -32
WIRE -80 -16 -128 -16
WIRE -352 0 -352 -48
WIRE -288 0 -288 -48
WIRE 16 0 16 -32
WIRE -752 16 -752 -48
WIRE -752 16 -800 16
WIRE -752 80 -752 16
WIRE -704 80 -752 80
WIRE -496 80 -624 80
WIRE -128 96 -128 -16
WIRE 16 96 16 80
WIRE 16 96 -128 96
WIRE 160 96 160 -32
WIRE 208 96 160 96
WIRE 16 112 16 96
WIRE 304 112 304 -32
WIRE 304 112 272 112
WIRE 368 112 304 112
WIRE 208 128 160 128
WIRE -224 176 -224 -48
WIRE -800 208 -800 16
WIRE -704 208 -800 208
WIRE -544 208 -624 208
WIRE -352 208 -352 64
WIRE -352 208 -400 208
WIRE -288 208 -288 64
WIRE -288 208 -352 208
WIRE 16 208 16 192
WIRE 16 208 -176 208
WIRE 16 224 16 208
WIRE 16 320 16 304
WIRE 16 320 -128 320
WIRE 16 336 16 320
WIRE -352 352 -352 208
WIRE -288 352 -288 208
WIRE -128 432 -128 320
WIRE -80 432 -128 432
WIRE 16 448 16 416
WIRE 16 448 -16 448
WIRE 48 448 16 448
WIRE 160 448 160 128
WIRE 160 448 128 448
WIRE 192 448 160 448
WIRE 304 448 272 448
WIRE -496 464 -496 80
WIRE -464 464 -496 464
WIRE -352 464 -352 416
WIRE -352 464 -384 464
WIRE -288 464 -288 416
WIRE -288 464 -352 464
WIRE -224 464 -224 240
WIRE -224 464 -288 464
WIRE -80 464 -224 464
WIRE -224 480 -224 464
WIRE -224 544 -224 528
WIRE 16 560 -128 560
WIRE -128 608 -128 560
WIRE -80 608 -128 608
WIRE 16 624 16 560
WIRE 16 624 -16 624
WIRE 48 624 16 624
WIRE 160 624 128 624
WIRE 192 624 160 624
WIRE 288 624 256 624
WIRE -176 640 -176 208
WIRE -80 640 -176 640
WIRE 160 688 160 624
WIRE 176 688 160 688
WIRE 288 688 288 624
WIRE 288 688 256 688
WIRE 288 752 288 688
WIRE 288 752 240 752
WIRE -544 768 -544 208
WIRE 48 768 -544 768
WIRE 160 768 160 688
WIRE 160 768 128 768
WIRE 176 768 160 768
WIRE 288 784 240 784
FLAG 304 448 0
FLAG -224 544 0
FLAG -224 -144 0
FLAG -400 208 0
SYMBOL OpAmps\\OP07 -48 32 M180
SYMATTR InstName U1
SYMBOL OpAmps\\OP07 -48 384 R0
SYMATTR InstName U2
SYMBOL res 0 320 R0
SYMATTR InstName R1
SYMBOL res 0 208 R0
SYMATTR InstName R2
SYMBOL res 0 96 R0
SYMATTR InstName R3
SYMBOL res 0 -16 R0
SYMATTR InstName R4
SYMBOL OpAmps\\OP07 -48 560 R0
SYMATTR InstName U4
SYMBOL OpAmps\\OP07 208 704 M0
SYMATTR InstName U5
SYMBOL res 144 608 R90
WINDOW 0 0 56 VBottom 2
WINDOW 3 32 56 VTop 2
SYMATTR InstName R5
SYMBOL cap 256 608 R90
WINDOW 0 0 32 VBottom 2
WINDOW 3 -29 69 VTop 2
SYMATTR InstName C1
SYMBOL res 272 672 R90
WINDOW 0 0 56 VBottom 2
WINDOW 3 -28 14 VTop 2
SYMATTR InstName R6
SYMBOL res 144 752 R90
WINDOW 0 0 56 VBottom 2
WINDOW 3 32 56 VTop 2
SYMATTR InstName R7
SYMBOL res 144 -48 R90
WINDOW 0 0 56 VBottom 2
WINDOW 3 32 56 VTop 2
SYMATTR InstName R8
SYMBOL res 144 432 R90
WINDOW 0 0 56 VBottom 2
WINDOW 3 32 56 VTop 2
SYMATTR InstName R9
SYMBOL res 288 432 R90
WINDOW 0 0 56 VBottom 2
WINDOW 3 32 56 VTop 2
SYMATTR InstName R10
SYMBOL res 288 -48 R90
WINDOW 0 0 56 VBottom 2
WINDOW 3 32 56 VTop 2
SYMATTR InstName R11
SYMBOL OpAmps\\OP07 240 48 R0
SYMATTR InstName U6
SYMBOL diode -304 0 R0
SYMATTR InstName D1
SYMBOL diode -272 416 R180
WINDOW 0 -24 63 Left 2
WINDOW 3 -16 2 Left 2
SYMATTR InstName D2
SYMBOL diode -368 352 R0
WINDOW 0 -22 4 Left 2
WINDOW 3 -9 62 Left 2
SYMATTR InstName D3
SYMBOL diode -336 64 R180
WINDOW 0 24 64 Left 2
WINDOW 3 24 0 Left 2
SYMATTR InstName D4
SYMBOL res -368 448 R90
WINDOW 0 0 56 VBottom 2
WINDOW 3 32 56 VTop 2
SYMATTR InstName R12
SYMBOL res -368 -64 R90
WINDOW 0 0 56 VBottom 2
WINDOW 3 32 56 VTop 2
SYMATTR InstName R13
SYMBOL cap -240 176 R0
SYMATTR InstName C2
SYMBOL cap -240 480 R0
SYMATTR InstName C3
SYMBOL cap -240 -128 R0
SYMATTR InstName C4
SYMBOL voltage -608 -48 R90
WINDOW 0 -32 56 VBottom 2
WINDOW 3 32 56 VTop 2
WINDOW 123 0 0 Left 0
WINDOW 39 0 0 Left 0
SYMATTR InstName LA
SYMATTR Value PWL file=LA.txt
SYMBOL voltage -608 80 R90
WINDOW 0 -32 56 VBottom 2
WINDOW 3 32 56 VTop 2
WINDOW 123 0 0 Left 0
WINDOW 39 0 0 Left 0
SYMATTR InstName RA
SYMATTR Value PWL file=RA.txt
SYMBOL voltage -720 208 R270
WINDOW 0 32 56 VTop 2
WINDOW 3 -32 56 VBottom 2
WINDOW 123 0 0 Left 0
WINDOW 39 0 0 Left 0
SYMATTR InstName RL_CMI
SYMATTR Value SINE(0 0.2 50)
TEXT 296 784 Left 2 ;2.5 VREF
