Version 4.1
SHEET 1 880 864
WIRE -80 -48 -336 -48
WIRE 16 -32 -16 -32
WIRE -80 -16 -128 -16
WIRE 16 0 16 -32
WIRE -128 96 -128 -16
WIRE 16 96 16 80
WIRE 16 96 -128 96
WIRE 16 112 16 96
WIRE 16 208 16 192
WIRE 16 208 -176 208
WIRE 16 224 16 208
WIRE 16 320 16 304
WIRE 16 320 -128 320
WIRE 16 336 16 320
WIRE -128 432 -128 320
WIRE -80 432 -128 432
WIRE 16 448 16 416
WIRE 16 448 -16 448
WIRE -80 464 -336 464
WIRE 16 576 -128 576
WIRE -128 624 -128 576
WIRE -80 624 -128 624
WIRE 16 640 16 576
WIRE 16 640 -16 640
WIRE 48 640 16 640
WIRE 160 640 128 640
WIRE 192 640 160 640
WIRE 288 640 256 640
WIRE -176 656 -176 208
WIRE -80 656 -176 656
WIRE 160 704 160 640
WIRE 176 704 160 704
WIRE 288 704 288 640
WIRE 288 704 256 704
WIRE 288 784 288 704
WIRE 288 784 240 784
WIRE 48 800 -336 800
WIRE 160 800 160 704
WIRE 160 800 128 800
WIRE 176 800 160 800
SYMBOL OpAmps\\OP07 -48 32 M180
SYMATTR InstName U1
SYMBOL OpAmps\\OP07 -48 384 R0
SYMATTR InstName U2
SYMBOL OpAmps\\OP07 528 32 R0
SYMATTR InstName U3
SYMBOL res 0 320 R0
SYMATTR InstName R1
SYMBOL res 0 208 R0
SYMATTR InstName R2
SYMBOL res 0 96 R0
SYMATTR InstName R3
SYMBOL res 0 -16 R0
SYMATTR InstName R4
SYMBOL OpAmps\\OP07 -48 576 R0
SYMATTR InstName U4
SYMBOL OpAmps\\OP07 208 736 M0
SYMATTR InstName U5
SYMBOL res 144 624 R90
WINDOW 0 0 56 VBottom 2
WINDOW 3 32 56 VTop 2
SYMATTR InstName R5
SYMBOL cap 256 624 R90
WINDOW 0 0 32 VBottom 2
WINDOW 3 -29 69 VTop 2
SYMATTR InstName C1
SYMBOL res 272 688 R90
WINDOW 0 0 56 VBottom 2
WINDOW 3 -28 14 VTop 2
SYMATTR InstName R6
SYMBOL res 144 784 R90
WINDOW 0 0 56 VBottom 2
WINDOW 3 32 56 VTop 2
SYMATTR InstName R7
